Version 4
SHEET 1 1472 1156
WIRE -16 -448 -96 -448
WIRE 496 -448 -16 -448
WIRE 640 -448 592 -448
WIRE 1104 -448 736 -448
WIRE -96 -384 -96 -448
WIRE 512 -336 512 -400
WIRE 720 -336 720 -400
WIRE 720 -336 512 -336
WIRE 720 -320 720 -336
WIRE 800 -320 720 -320
WIRE 720 -288 720 -320
WIRE 720 -160 720 -208
WIRE -96 320 -192 320
WIRE 80 320 -96 320
WIRE 144 320 80 320
WIRE 512 320 400 320
WIRE 560 320 512 320
WIRE 624 320 560 320
WIRE 720 320 624 320
WIRE 752 320 720 320
WIRE 1104 320 1104 -448
WIRE 1104 320 848 320
WIRE 1168 320 1104 320
WIRE 1232 320 1168 320
WIRE 1296 320 1232 320
WIRE 1296 336 1296 320
WIRE -96 352 -96 320
WIRE 624 352 624 320
WIRE 1168 352 1168 320
WIRE 80 416 80 320
WIRE 144 416 80 416
WIRE -96 432 -96 416
WIRE 624 432 624 416
WIRE 1168 432 1168 416
WIRE 1296 432 1296 416
WIRE 832 448 832 368
WIRE 880 448 832 448
WIRE 1008 448 960 448
WIRE 832 496 832 448
WIRE 144 512 64 512
WIRE 512 512 512 320
WIRE 512 512 400 512
WIRE 720 576 720 320
WIRE 784 576 720 576
WIRE 720 624 720 576
FLAG -96 -304 0
FLAG -336 1136 0
FLAG 832 592 0
FLAG 1296 432 0
FLAG 1168 432 0
FLAG 624 432 0
FLAG -336 1056 usb
FLAG 800 -320 usb
FLAG 720 -160 0
FLAG -16 -448 batt
FLAG 1008 448 batt
FLAG 720 704 0
FLAG 272 576 0
FLAG -192 320 usb
FLAG -96 432 0
FLAG 1232 320 LOAD
FLAG 64 576 0
FLAG 560 320 RAW_3V3
SYMBOL voltage -336 1040 R0
WINDOW 123 0 0 Left 0
WINDOW 39 0 0 Left 0
SYMATTR InstName V1
SYMATTR Value PWL(0 0 25m 0 25.001m 5 50m 5 50.001m 0 75m 0)
SYMBOL voltage -96 -400 R0
WINDOW 123 0 0 Left 0
WINDOW 39 0 0 Left 0
SYMATTR InstName V2
SYMATTR Value 3.6
SYMBOL nmos 784 496 R0
SYMATTR InstName M1
SYMATTR Value 2N7002
SYMBOL res 1280 320 R0
SYMATTR InstName R1
SYMATTR Value 5
SYMBOL cap 1152 352 R0
SYMATTR InstName C1
SYMATTR Value 220µ
SYMBOL cap 608 352 R0
SYMATTR InstName C2
SYMATTR Value 10µ
SYMBOL res 704 -304 R0
SYMATTR InstName R2
SYMATTR Value 10k
SYMBOL res 976 432 R90
WINDOW 0 0 56 VBottom 2
WINDOW 3 32 56 VTop 2
SYMATTR InstName R3
SYMATTR Value 10k
SYMBOL res 704 608 R0
SYMATTR InstName R4
SYMATTR Value 10k
SYMBOL PowerProducts\\ADM7171-3.3 272 416 R0
SYMATTR InstName U1
SYMBOL cap -112 352 R0
SYMATTR InstName C3
SYMATTR Value 10µ
SYMBOL AO3401A 672 -480 R270
WINDOW 0 25 -93 Bottom 2
WINDOW 3 72 36 Top 2
SYMATTR InstName U2
SYMBOL AO3401A 784 288 R270
WINDOW 0 24 11 Bottom 2
WINDOW 3 51 49 Top 2
SYMATTR InstName U3
SYMBOL AO3401A 560 -480 M270
WINDOW 0 29 -108 Bottom 2
WINDOW 3 70 32 Top 2
SYMATTR InstName U4
SYMBOL cap 48 512 R0
SYMATTR InstName C4
SYMATTR Value 1p
TEXT -352 776 Left 2 !.tran 0 100m 0 100n startup
TEXT -360 888 Left 2 !.model My_PMOS PMOS(VTO=-2.5 CGS=645p)
TEXT -360 936 Left 2 !.model My_NMOS NMOS(VTO=1.6 CGS=50p)
